136

Au            -0.356478609        0.310307237        3.018485991 
Au            -2.485795379      -0.377865200        1.226335599 
Au            -1.366769141        2.333061913        1.087008784 
Au              1.428138872        2.014467230        1.651686985 
Au              2.048110274      -0.829944140        1.887199650 
Au            -0.468513676      -2.334731700        1.817576342 
Au              0.619984974      -0.379505310      -2.963185401 
Au            -2.112185832      -0.746187425      -1.858082842 
Au            -0.814727782        1.854025315      -1.965521235 
Au              2.055459722        1.669188818      -1.517659083 
Au              2.527264436      -1.176272853      -0.928445488 
Au              0.025316955      -2.600108122      -1.348825542 
Au            -2.363374175      -1.451246965        3.936277268 
Au            -2.922498421        1.636617780        3.371137876 
Au            -0.319823096        3.068037564        3.725442113 
Au              2.219646189        0.719727463        4.257977034 
Au              0.901962858      -1.992867227        4.312150992 
Au            -2.585361581      -4.073077889        2.566382947 
Au            -4.593665840      -2.015348128        2.173172983 
Au            -5.074011180        0.875879612        1.502488536 
Au            -3.968578041        3.564410859        1.148741922 
Au            -0.921790881        5.119339713        1.639424965 
Au              1.833131732        4.666810183        2.462903213 
Au              3.974648542        2.579334022        2.854491114 
Au              4.736708516      -0.432244629        2.742249918 
Au              3.356933490      -3.129134026        2.946365795 
Au              0.795778718      -4.689295118        2.946057267 
Au            -2.556239639      -2.978798090      -0.080467243 
Au            -3.430343976        1.539066469      -0.743878585 
Au              0.588153489        3.856935381      -0.405227375 
Au              3.836226832        0.973235586        0.546787156 
Au              1.833541875      -3.474760908        0.663761580 
Au            -1.778850639        0.485840153      -4.390826081 
Au              1.101845633        2.106402919      -4.219192867 
Au              3.476942069        0.087186422      -3.422551724 
Au              2.362152263      -2.690698676      -3.281678195 
Au            -1.095919394      -2.431233983      -4.019338853 
Au            -3.697025539      -3.006277669      -2.685757500 
Au            -4.551680059        0.266863308      -3.008790485 
Au            -3.155080780        2.842468140      -3.273296183 
Au            -0.462561372        4.352942836      -3.230827316 
Au              2.387009294        4.277929541      -2.580906218 
Au              4.878371163        2.200311091      -1.725389012 
Au              5.299088515      -0.745918671      -1.044972170 
Au              4.122532738      -3.553748908      -0.878570532 
Au              1.514991085      -5.000352005      -1.684120827 
Au            -1.449171733      -4.798418224      -2.266059738 
Au              3.495045510        3.896216780        0.178166457 
Au            -0.654008575      -5.147192102        0.509552086 
Au            -2.250510232        4.458095837      -0.934626058 
Au            -4.863138221      -1.211784221      -0.600138162 
S                2.935276904        1.585437733        6.464071364 
S                2.814316563        5.832443874        4.426451433 
S              -1.071427581        4.694148897        5.438945410 
S              -4.744141918        5.426649937        2.530776412 
S              -4.482157842        1.956258434        5.291435259 
S              -6.628022631      -1.890584516        3.629564751 
S              -2.632269175      -2.441456316        6.184295749 
S              -0.080402827      -6.143496960        4.690086795 
S                1.928497628      -2.436721644        6.536461501 
S                6.084518351      -1.238365396        4.622877053 
Au              4.011184607      -1.917759410        5.544925087 
Au            -1.346094259      -4.260642118        5.373497186 
Au            -5.565971977        0.054453757        4.419788146 
Au            -2.875574916        5.067546677        3.941347952 
Au              2.889953371        3.702187564        5.430240522 
S              -2.081171211        1.101354651      -6.770159037 
S              -1.366703602        5.494686940      -5.260668229 
S                2.260001831        2.928803072      -6.232880243 
S                6.110564291        3.339612802      -3.490669716 
S                5.271856646      -0.639006743      -4.983855326 
S                6.241560750      -4.160716701      -1.972002314 
S                2.623732888      -3.991806193      -5.361884334 
S              -1.056770700      -6.571281208      -3.973205584 
S              -2.045984680      -2.971150187      -6.234481548 
S              -5.935882576      -0.681798417      -4.785342446 
Au            -3.998280202      -1.874325551      -5.455822164 
Au              0.837530811      -5.321318273      -4.596597218 
Au              5.738598025      -2.398336566      -3.473494434 
Au              4.143519802        3.129794062      -4.803441962 
Au            -1.805476153        3.301228026      -5.990684629 
S                4.711728644      -5.211419983        2.820845951 
S              -2.187798102      -7.148576019        0.375754364 
S              -4.438219637      -5.727720989        2.552270477 
S              -6.741265339      -2.902024722      -0.518565613 
S              -7.186809473        1.792525004        0.576625800 
S              -5.406865810        3.885790302      -3.293534389 
Au              3.616081319      -6.014811599        0.874721452 
Au            -5.558982076      -4.405372636        0.908578850 
Au            -6.130060401        2.792670937      -1.307011973 
S              -0.404235808        7.559931539        1.590844478 
S                3.980618983        6.368229165        0.178858794 
S              -2.090351854        6.950438434      -1.400728280 
S                2.425927082        6.736659847      -2.906948168 
Au              1.760763704        6.997369684        0.774150589 
Au              0.216992698        6.867111508      -2.014995016 
S                6.409310192        2.980701123        2.935125059 
S                7.590965745      -0.306870694      -0.272276051 
Au              6.851220207        1.324065387        1.290268151 
S                2.596094882      -7.106377948      -0.978099974 
S              -5.118661600      -5.061721486      -2.740037235 
Au            -3.733159056      -6.076879979      -1.087999631 
H              -0.043983133        7.654195500        2.893550160 
H                4.449378018        6.456684074        1.447732796 
H                1.627940419        6.193350829        4.975499091 
H                1.678707119        1.653372695        6.968652587 
H              -1.742492309        3.823847598        6.232017218 
H              -5.603303355        4.714230767        3.302191184 
H              -3.731438475        1.255750375        6.176302453 
H              -6.148005717      -2.699627310        4.605019461 
H              -7.231848737        2.918182824        1.328327152 
H              -5.004050726        5.021702205      -2.672326298 
H              -7.445222869      -2.328781965        0.487987511 
H              -5.108135416      -5.213133657        3.612536702 
H              -1.581586111      -1.788850170        6.740635260 
H                0.920672737      -5.994951260        5.592577897 
H                2.010729459      -3.784502071        6.432046294 
H                6.425599398      -2.437687735        4.091492120 
H                6.377192930        4.023228761        2.068731295 
H                7.927844293        0.569983484      -1.248933161 
H                5.739256540      -4.632534309        2.151587688 
H                3.674374945      -7.058547247      -1.796369342 
H              -1.527343910      -7.801971060      -0.610077928 
H              -4.494496717      -5.644076603      -3.793834839 
H              -0.414644988      -7.442845303      -3.158714349 
H                3.632014741      -4.796811971      -4.950461321 
H                5.726168591      -5.160412463      -2.729058745 
H                4.455608470      -1.367493082      -5.785419098 
H                6.709407911        2.240870370      -4.015472286 
H                2.593899953        1.711676126      -6.727127715 
H              -2.434380559      -4.242192421      -5.969636070 
H              -5.812955996        0.337629864      -5.670909156 
H              -3.434919506        1.091321576      -6.789893233 
H              -0.179221618        5.622344534      -5.901838755 
H              -2.520369308        6.923687097      -2.687682930 
H                2.050647492        6.725112872      -4.210044603

