506

Au 	 17.517835608332060  18.990025289175232  19.686491618122464
Au 	 17.519390861235543  18.984940727748903  15.248977537209496
Au 	 17.525996343421472  16.206158118662380  19.693688156861985
Au 	 17.520583609741227  16.212027854132682  15.247657958676870
Au 	 18.901409345983964  19.811241318435691  17.467151018917942
Au 	 18.909519685845567  15.380192295692176  17.469408440901621
Au 	 16.111850245960817  19.823495743631739  17.468448373225616
Au 	 16.121227782295463  15.391563050429170  17.472567658402458
Au 	 19.773474345717911  17.595445990818611  18.820104785658476
Au 	 15.290467498806507  17.600642531919515  18.872890866210607
Au 	 19.746694858987265  17.594735129099082  16.051516280883835
Au 	 15.285681711865507  17.607940142703139  16.083156560300793
Au 	 17.506713503611156  20.535371159990568  22.056553325144147
Au 	 17.521002517339006  20.496861624065275  12.810239255257592
Au 	 17.581253856701625  14.687966571810684  22.090042871109148
Au 	 17.523506329235968  14.701467327058852  12.807353925994883
Au 	 20.410263626503447  22.208374382908897  17.404839198600261
Au 	 20.448000429542592  12.966897160681881  17.468867114489608
Au 	 14.613919428876031  22.261111953893028  17.466924674844101
Au 	 14.602742846318046  12.989378893488503  17.415952118402938
Au 	 22.141303534424939  17.591348646936812  20.323531132051841
Au 	 12.902983051436882  17.604880637408492  20.331090132048857
Au 	 22.135153337047893  17.592863450804220  14.522173564952531
Au 	 12.898567648251239  17.616935569985813  14.528359056408686
Au 	 19.861729018795092  19.067248882561287  21.225116952478913
Au 	 17.520190807729318  17.596251582303832  22.107331649822807
Au 	 15.177796214143301  19.085735163173354  21.265320169474819
Au 	 16.019532006907340  21.411216502181563  19.809718183982223
Au 	 18.992577073195790  21.404114851135294  19.790473299543603
Au 	 19.879628732295892  19.079169110304012  13.635538039138405
Au 	 17.569313107666684  17.601693430154135  12.809877844132449
Au 	 15.187008742143330  19.070083194094103  13.663377330510180
Au 	 16.078186209914271  21.392999815257554  15.101705205529939
Au 	 19.011471599976879  21.368567514109444  15.079578191309695
Au 	 19.898774356416840  16.112470306803750  21.233925740808168
Au 	 15.193196644010433  16.121591982453328  21.272444029868048
Au 	 16.023825430575389  13.805418495707658  19.807704172895619
Au 	 19.012085915846509  13.787444987466104  19.807518492610622
Au 	 19.877021508230317  16.109582623753287  13.626005769258867
Au 	 15.187472034071908  16.130403539791047  13.670758367515360
Au 	 16.057266569248437  13.803089419594908  15.102526089844778
Au 	 18.963047735748177  13.800341474891615  15.115974775453125
Au 	 17.518749710809754  22.236042458166544  17.459658399583361
Au 	 21.333251121122903  19.954508349108487  18.888056516771012
Au 	 21.331809753845882  19.929554911690239  15.981254450564927
Au 	 17.506780386722696  12.976551728439663  17.482705735993072
Au 	 21.338810691837892  15.225672768010984  18.909350377043040
Au 	 21.314511803426477  15.254509393811858  15.982032918636284
Au 	 13.718140543744886  19.988243631017280  18.922199224454612
Au 	 13.716194519285319  19.986145823082207  15.948433355087205
Au 	 13.700247591084665  15.239210494470237  18.905262520710064
Au 	 13.710132077042072  15.278017736372581  15.991596472054049
Au 	 22.195810811668927  17.595381598397196  17.411184174380569
Au 	 12.870790331546422  17.608785462286612  17.462108118697603
Au 	 17.509817712142457  22.211655074427998  24.516412062383377
Au 	 17.569745851518309  22.190829977104876  10.382205651997348
Au 	 17.592315495878047  12.999314747433660  24.585815776147101
Au 	 17.572975387637932  12.995329857039376  10.383389168521781
Au 	 22.127196413155335  24.681412504425079  17.403747199398811
Au 	 22.170930764984455  10.496477034544778  17.518136382025691
Au 	 12.981615889542409  24.707674673347022  17.474239980441183
Au 	 12.908764014939646  10.528670013732947  17.473792191851643
Au 	 24.604034495814116  17.613760587263261  22.006145639146109
Au 	 10.416870860966091  17.603151619937901  22.021979513175694
Au 	 24.605184490157111  17.591626631520686  12.817342029530311
Au 	 10.418863747682268  17.666742804889292  12.885353355754791
Au 	 19.818937828732956  20.592247044314274  23.595221564349792
Au 	 22.216052917047911  19.077359751577358  22.729369134923001
Au 	 17.518475950005922  19.029460649798960  24.476839052075896
Au 	 19.904721428528589  17.596568326614136  23.672698167799730
Au 	 17.571366567503315  16.120802599745250  24.495641081887673
Au 	 15.196515920394031  20.592727044657895  23.604493623125812
Au 	 12.796104988744190  19.081866175173044  22.733722679093287
Au 	 15.124552948473138  17.593965728118746  23.690641680831487
Au 	 16.015145999436566  22.994016877648473  22.197862725181189
Au 	 14.587896015066194  23.811923530273013  19.809475535842626
Au 	 18.991355503912189  22.941154391685831  22.134143682777808
Au 	 17.524648401487799  23.858983323601137  19.806844398359836
Au 	 20.493992476632030  23.785217415800002  19.730247075961948
Au 	 21.405232072255995  21.495756466034660  21.318194592223715
Au 	 13.604321834872087  21.578993914396250  21.393362904382720
Au 	 19.899981248139415  20.604328301692039  11.289380104227073
Au 	 22.263879454430267  19.054636782946570  12.113460622496442
Au 	 17.537039074898122  19.070915943707057  10.401462500871350
Au 	 19.910952812628917  17.662594447523617  11.199385869839571
Au 	 17.584863140010043  16.182465063294668  10.405352962569717
Au 	 15.179006700307077  20.534203536245517  11.278736715823335
Au 	 12.796424776784391  19.089777286709992  12.107498446352327
Au 	 15.190063053213771  17.594300709712886  11.217075787014581
Au 	 16.031207148775724  22.914801969435747  12.691180714861579
Au 	 14.591578492398224  23.734940572189156  15.094038412687087
Au 	 19.004595891527448  22.927733631112996  12.723399008021131
Au 	 17.533259208422667  23.810142657249070  15.071754429204150
Au 	 20.508113738406205  23.783754755842043  15.077463148747084
Au 	 21.469336185957502  21.504016490645775  13.570262338872809
Au 	 13.605793812121888  21.516893182008751  13.520427296416210
Au 	 19.905043896009001  14.611455901660586  23.667679090490299
Au 	 22.279944801283385  16.129305404981000  22.785990091744274
Au 	 15.204889044115582  14.603047621917998  23.605924280314696
Au 	 12.794489962666935  16.120759538122098  22.738919360319411
Au 	 16.090931735870399  12.289614165315985  22.203372069614407
Au 	 14.512432931128895  11.463388657463748  19.793310380064920
Au 	 19.076316263474371  12.282476412411548  22.201792098834815
Au 	 17.502487494868369  11.391962598169590  19.871925154177482
Au 	 20.582560433733349  11.414675185852328  19.811867742679372
Au 	 21.485964720107042  13.707186423582668  21.400908503463274
Au 	 13.606891398245496  13.708700395998015  21.330913302857024
Au 	 19.902928097336627  14.602224631502676  11.278848188914296
Au 	 22.228911286649964  16.096460298706962  12.093467300861763
Au 	 15.197535386754343  14.655738581731363  11.287237168409911
Au 	 12.797452104752402  16.126929999884055  12.123115591884860
Au 	 16.016678242203945  12.282310233836981  12.732974405967884
Au 	 14.504629381166318  11.420984348946503  15.115699458909683
Au 	 19.002193764823364  12.273132982798623  12.720034624173911
Au 	 17.513118876028379  11.387160221535206  15.093264003701291
Au 	 20.496291365309645  11.427883666104639  15.149655057906116
Au 	 21.411323219170512  13.629200058173401  13.586967946922931
Au 	 13.603392247643166  13.700365508098608  13.524996403569018
Au 	 19.003973952269291  24.625978963829660  17.409928848682299
Au 	 16.102041589974558  24.657335071205125  17.431305990075231
Au 	 22.828425441321162  22.321579679082078  18.905465920940813
Au 	 23.690570981118309  19.928276472373170  20.393901565918501
Au 	 22.882308697924611  22.319831325950624  15.986165141061210
Au 	 23.702722807704045  19.917735654114963  14.435097723738561
Au 	 23.790644984148212  19.993722270072308  17.403556883727287
Au 	 18.945959791792887  10.593988608990525  17.523636973064047
Au 	 16.041743435531075  10.571255304501927  17.470183109234764
Au 	 22.894984646546757  12.881409973369550  18.987808183613151
Au 	 23.718797878697337  15.283115600806042  20.405331861126172
Au 	 22.863115784869191  12.871584498800422  16.011180163296629
Au 	 23.659864370898966  15.257489214814120  14.443037844807181
Au 	 23.786369037230671  15.210627014480611  17.412013490419028
Au 	 12.203396470905588  22.389479271598898  18.991901674404726
Au 	 11.376781295134675  19.972925169817252  20.429499269630838
Au 	 12.195594155581455  22.387819931210256  15.993957605213872
Au 	 11.338200187528269  19.989117763954791  14.462596494799310
Au 	 11.312535145132712  20.010576443698636  17.477043453228646
Au 	 12.178733895476061  12.886184561706020  18.898335130968821
Au 	 11.340385202202055  15.275391089900854  20.407682621450363
Au 	 12.187451427236670  12.899402096507853  15.935543631227876
Au 	 11.366633929700859  15.285660212920432  14.470106295673645
Au 	 11.222031097148342  15.217191009757215  17.412250530220113
Au 	 24.567223646068040  17.637818273800434  18.857695466085666
Au 	 24.588159478500536  17.589766954863446  15.967313900997205
Au 	 10.488559393622999  17.609291647243687  18.916731135677633
Au 	 10.499373006422188  17.669851228616743  15.999886681961266
Au 	 20.187668861684369  23.090837092011014  24.721594368676460
Au 	 14.809535065170515  23.005832993523377  24.810951188957517
Au 	 18.977875836781209  20.487451406700817  26.283697919788789
Au 	 16.167719603441704  20.489371285452389  26.314494393379384
Au 	 17.599978490983293  24.900741677493578  23.496445244005240
Au 	 20.212013732042148  23.080865467328731  10.107554955726330
Au 	 14.876991885606722  22.989533304355703  10.101409696290338
Au 	 18.941872065410472  20.496808256307798  8.579368076534594
Au 	 16.103600259994462  20.491578588547441  8.597638766707695
Au 	 17.597086223857751  24.874534671256551  11.338908819458300
Au 	 20.274504941082078  12.120303968750704  24.805264279593377
Au 	 14.909742427432890  12.140287216053480  24.797334904149501
Au 	 18.933985440526818  14.711736276119970  26.391124408674944
Au 	 16.107130323920110  14.723349463589440  26.305485627401030
Au 	 17.595583423068582  10.329398995939375  23.519818628430603
Au 	 20.236181146440433  12.140386286169674  10.116106376577680
Au 	 14.895825946911529  12.125773707861637  10.186743671741501
Au 	 18.926223368970028  14.715263920842469  8.590395950615386
Au 	 16.106694964041544  14.726917854844267  8.618761291570529
Au 	 17.523193738665782  10.318073047324855  11.417573809032787
Au 	 22.994056497831629  24.910429505948560  20.083557958101323
Au 	 22.986724121139584  24.913214711507049  14.718661293180572
Au 	 24.809286995775043  23.663662732600372  17.500877185641322
Au 	 20.467955938001975  26.488960490512312  18.814218653600808
Au 	 20.460010775831496  26.472899454780286  16.001817850601473
Au 	 23.089562772884097  10.290738654029798  20.194839042275490
Au 	 22.990889725988957  10.294705630506527  14.863472059368890
Au 	 24.809913894441170  11.517137330627477  17.513655238049282
Au 	 20.399667131011689  8.722453741406984  18.886197469011808
Au 	 20.359726304986502  8.770600561126949  16.084454158894122
Au 	 12.117100630482025  24.996378819432429  20.129349333470305
Au 	 12.202758583054496  24.993026162742048  14.794130611513445
Au 	 10.247997439692492  23.640879818420867  17.523941952666735
Au 	 14.696702558709587  26.518738933975886  18.817927865435163
Au 	 14.709444025199888  26.469198698935124  15.996330827351377
Au 	 12.023666180349753  10.306233001055267  20.120164179868159
Au 	 11.986752078938849  10.299481609638457  14.858678238793781
Au 	 10.207111708721806  11.597855737327395  17.395875097440506
Au 	 14.615521122313888  8.736180230057640  18.899492341022750
Au 	 14.608459168550947  8.705403404185954  16.084930012260532
Au 	 24.808822060856279  20.281510594550330  22.895688561800224
Au 	 24.888690373025710  14.984799432368625  22.882515163714942
Au 	 26.397040325182282  19.069024233131085  20.313938490829255
Au 	 26.401333947718939  16.263334714307142  20.277274485337024
Au 	 23.600378380754446  17.700728119736691  24.700716504666424
Au 	 10.191618076442355  20.285937588701760  22.874920517243478
Au 	 10.203621722519610  14.922548075931276  22.894575258789075
Au 	 8.624377596140681  19.003378882034980  20.382030741230626
Au 	 8.654490537320140  16.181479786354313  20.326908227809689
Au 	 11.499348106638076  17.603041881475196  24.696869592405488
Au 	 24.904846839282008  20.275944642972057  12.007450502664449
Au 	 24.884573193256728  14.920145108489509  11.999409286620113
Au 	 26.420905169354306  18.945210340403161  14.506276329522205
Au 	 26.389020269337998  16.119963521813627  14.506044148118072
Au 	 23.608942313883290  17.592118775825266  10.179778251000059
Au 	 10.213366877751449  20.309765505634150  11.933554837785573
Au 	 10.203360122862064  14.992986393373082  12.003723329019287
Au 	 8.603024903795211  19.019800861898773  14.594430831402200
Au 	 8.657695248684814  16.240252955247797  14.608833608731496
Au 	 11.408388157368977  17.609763247470728  10.200130408574836
Au 	 22.495348536613065  21.608625807443467  23.896950696691309
Au 	 21.337160731889206  19.201567306620095  25.480231364671859
Au 	 18.999864900100643  17.601124514778157  26.411997329724873
Au 	 16.011046149753536  17.598053414133215  26.402882493085105
Au 	 12.493353716566000  21.615064516634540  23.926872197770859
Au 	 13.709181800286883  19.207987863719644  25.482720458065007
Au 	 13.407047146710596  24.083471951529543  22.517055134711661
Au 	 16.007752833109517  25.695840296547704  21.267382832167904
Au 	 21.593278037111514  24.016754601953650  22.408384945574216
Au 	 19.125336433907570  25.670709185643450  21.220174983280597
Au 	 22.582810700046689  21.611916265137257  10.999528117318249
Au 	 21.391890051621434  19.205737033055794  9.398558936263907
Au 	 18.997880274082455  17.605610738694228  8.408748739860251
Au 	 16.076679981487654  17.604012556396448  8.474446548353049
Au 	 12.498984565909701  21.704493576097896  11.006685790628008
Au 	 13.705555120351155  19.113900842425952  9.395153215079945
Au 	 13.487277108349909  24.074169021758937  12.406330172190939
Au 	 15.996634185074720  25.609100620967226  13.592056891191870
Au 	 21.612182206462883  23.995624356860858  12.399531940955038
Au 	 19.076266782699548  25.670908565376411  13.620481175417972
Au 	 22.592708770143908  13.598708344702404  23.989170632163649
Au 	 21.380533082902328  16.066927427871011  25.487567633109872
Au 	 12.559433086697817  13.547717197561855  23.902833251629445
Au 	 13.688096134644837  15.989413371055925  25.485628249166265
Au 	 13.499675719097409  11.182868516382444  22.473138167572756
Au 	 15.891341017326345  9.593831542292671  21.309589766129054
Au 	 21.697014395346848  11.199268927539507  22.514793223723366
Au 	 19.072888002117480  9.592668926838448  21.260040368268882
Au 	 22.583022561442277  13.464491998220423  11.087954802578309
Au 	 21.310054357466296  16.090543306697999  9.394067272169302
Au 	 12.507552095329556  13.522093303615092  11.007279994046499
Au 	 13.666943098224722  16.004163038050354  9.446711135765232
Au 	 13.402351051255467  11.132444157316984  12.486827289514041
Au 	 15.915255610386629  9.580859332191226  13.673131460535082
Au 	 21.593224048526054  11.109607483585751  12.477456999167318
Au 	 19.135269878593899  9.574266446384534  13.642373760759908
Au 	 17.539800282291484  26.604355175346935  18.894890929159107
Au 	 17.594051203733844  26.601522599759765  15.991939360947697
Au 	 23.929201315544528  22.599241442704290  21.502246406933473
Au 	 25.587219181820352  21.413647885067778  19.001292142673243
Au 	 24.000875938793534  22.601745078859860  13.395730649575015
Au 	 25.595234352478315  21.410812948937725  15.804583270446670
Au 	 17.494871605537643  8.611070059625998  18.919365400360316
Au 	 17.498339764645898  8.674882034681247  15.997557501766526
Au 	 24.001510645413990  12.602762798341853  21.599149228757089
Au 	 25.602528699173366  13.804932471847811  19.003161214588896
Au 	 24.002205226669922  12.592457225788776  13.414035314836219
Au 	 25.536444818632383  13.711368339797390  15.808894285779044
Au 	 11.084737460973608  22.685118782302812  21.588622696061872
Au 	 9.485911283732662  21.411390600893331  19.088085069537961
Au 	 11.102014451206477  22.672561787618960  13.397777301687640
Au 	 9.490569947463690  21.418374008172883  15.905796275487994
Au 	 11.081241659238474  12.604002278910267  21.503679295865975
Au 	 9.467298700447436  13.777014492270373  19.069440306425502
Au 	 11.025414581475154  12.606059442694995  13.386401194665773
Au 	 9.422245351582841  13.803179485829544  15.800766595627872
Au 	 26.522201352860137  19.085459449167637  17.400848445794239
Au 	 26.505043395840033  16.113533354221367  17.401618208069596
Au 	 8.577193356067212  19.107862956351507  17.491259663541818
Au 	 8.523317826271507  16.195361381912758  17.471244536286914
S 	 24.290562662204835  17.609421869103521  27.001800830019846
S 	 19.965254930271911  17.580407651568688  28.610584981544211
Au 	 22.092739634894194  17.612806464838641  27.711834601597236
S 	 10.734922024309681  17.692358983129676  26.971579260182104
S 	 15.045954899623714  17.623275533367305  28.602398101794861
Au 	 12.923908259340804  17.595478906771739  27.691756985974141
S 	 15.199015772281950  21.152678069987168  28.394819040943542
S 	 11.379611236483823  22.107892267787353  25.986410105524673
Au 	 13.335422651512651  21.577708714885919  27.076765411933064
S 	 15.157124792494207  13.879736842658216  28.335380796062175
S 	 11.360527723290840  12.943712101286838  25.890796502785022
Au 	 13.311532785640631  13.505125556992795  26.988252675676215
S 	 8.559499247844348  19.979877313907110  24.591639051266995
S 	 8.643814090105012  15.388478580765039  24.647016759858158
Au 	 8.597482321670356  17.683636143127458  24.318186564375935
S 	 19.869515859366071  21.375910764292801  28.321378049099678
S 	 23.704702175901065  22.194954433078728  25.892414313552628
Au 	 21.677381202969162  21.781900032121470  26.921923860334239
S 	 19.948281165457715  14.061204640643888  28.443256965475847
S 	 23.770087294026922  13.171333248399270  26.023303618807095
Au 	 21.797319491718859  13.711407735018257  27.089318621672355
S 	 26.701396296243857  19.902684014900021  24.303474582346553
S 	 26.452122269518675  15.314216580700357  24.650374315153105
Au 	 26.486633806768435  17.596509919326703  24.291398743922592
S 	 19.806087575007986  24.819486773183915  26.332936413033615
S 	 15.213006141492322  24.682424120212520  26.468821524400145
Au 	 17.514998443427018  24.483192926003124  26.397035848797035
S 	 19.790487009909594  10.809631325791452  26.745724727417056
S 	 15.220677241153654  10.322435342044496  26.300759829304589
Au 	 17.499126665848443  10.717566943901268  26.408439618717608
S 	 17.633133146111536  27.168917589972899  10.623838569639396
S 	 17.461180388962735  28.758332655493199  14.946402743166914
Au 	 17.503022208864081  27.882214701095968  12.812474289902479
S 	 17.420382162171528  27.171406757908407  24.262984380850092
S 	 17.752577035096159  28.759966675324485  19.946140816648178
Au 	 17.603488364357844  27.889652420069112  22.078649520057720
S 	 13.896329993489626  28.507759791527874  15.098312353410940
S 	 12.903038374171409  26.102783870423650  11.296418952431342
Au 	 13.544391002622106  27.161824403996619  13.240397747446119
S 	 21.384115526827259  28.500819212230404  15.126593624449216
S 	 21.810648399206578  26.078568581744630  11.220946150683400
Au 	 21.589650592030114  27.103234578508243  13.281176300145592
S 	 19.778654849825461  24.423208457804606  8.169155981188172
S 	 15.216953257815309  24.842517398167541  8.629093825468789
Au 	 17.483488749753104  24.408649363842947  8.480045555044670
S 	 13.604787838001002  28.417304229405197  19.764674556934740
S 	 13.252339131537035  26.134203340569062  23.738074344883135
Au 	 13.597429370948571  27.125190925706352  21.692205510430483
S 	 21.193790751804521  28.490136338829473  19.894017148196845
S 	 22.191738307467816  25.990615362918923  23.643837271938192
Au 	 21.593670196266711  27.095485737656151  21.698440351409140
S 	 10.456870824417527  26.651879294341214  19.696013653291345
S 	 10.364732881157087  26.467803137046445  15.108640875230895
Au 	 10.678031750499429  26.510246128817890  17.399588254585620
S 	 24.455141054429848  26.776616936378414  19.765507539815850
S 	 24.785621408458596  26.419571996704391  15.181295877212245
Au 	 24.404893034030366  26.526958370079178  17.464045346772064
S 	 27.094766338283069  24.399297751055904  17.440208576207805
S 	 28.701248958680690  20.088513379733875  17.496621469779651
Au 	 27.795911277576472  22.201318338393595  17.395882501909600
S 	 27.103904169662044  10.812882163213285  17.525642148438205
S 	 28.691098969692302  15.138422764598758  17.361649591104058
Au 	 27.797224665386953  13.009404468909409  17.401493068980837
S 	 28.460621112391571  15.445450233938175  21.178395198326761
S 	 26.123889931999454  11.541402943352832  21.915221472644657
Au 	 27.097908797989316  13.589869103679479  21.486968209029140
S 	 28.448080907338632  15.111197210585244  13.846540451175123
S 	 25.968822532546412  11.362578132710871  12.789075141488780
Au 	 27.085623977843138  13.292990127902586  13.405155074741195
S 	 28.453564460490131  19.995314159606838  21.096979390510210
S 	 25.969087123080026  23.800633364486192  21.898263607214531
Au 	 27.068825548301707  21.814996524011448  21.464165364102659
S 	 28.415268512044570  20.040556037214646  13.797292340492515
S 	 25.975538205737937  23.800024598994678  12.758526890175345
Au 	 27.089934934789415  21.892439783488268  13.402842842708386
S 	 26.664712419985889  19.988675973960866  10.429149351499991
S 	 26.764859546808029  15.378312597094219  10.593702209121894
Au 	 26.504946579441615  17.684288584637994  10.599897778479667
S 	 24.370074020834814  8.330104113016899  19.701572908487641
S 	 24.827561700768484  8.784874987536458  15.135773137464176
Au 	 24.400538713914770  8.608080708030688  17.400125079713924
S 	 7.971385712861249  24.390989947836125  17.522851166581603
S 	 6.377701750003512  20.066994634198661  17.614927460587655
Au 	 7.278919928709829  22.190635956914964  17.495554107120793
S 	 7.912145179291165  10.890592742058578  17.423516251386541
S 	 6.337485951205684  15.224601482375130  17.474388897274430
Au 	 7.260642399030056  13.105480621925917  17.407035176522385
S 	 10.229859199367397  8.772056376775604  19.790876749407087
S 	 10.632844492440366  8.365772036988524  15.217581073366308
Au 	 10.601231855985393  8.695662714644858  17.510100953736583
S 	 6.559609968359098  19.941919401830681  21.124224428328063
S 	 8.994912530484749  23.771957726773085  21.957995686846211
Au 	 7.915493480304011  21.794218612172390  21.479380842316889
S 	 6.593862566212405  20.144513764682614  13.987838322919790
S 	 9.102198336313394  23.807667289786885  12.790677629539186
Au 	 7.999233248975740  21.922946141085834  13.519363750044208
S 	 6.668967242176907  15.392651180219096  13.579324972307424
S 	 8.967977625470958  11.431185418306875  13.001150416169262
Au 	 7.992226383405725  13.503797197616560  13.318258292236393
S 	 6.625646646113736  15.213268712063327  21.127707177856479
S 	 9.099020008989052  11.463550250839143  22.224861763520959
Au 	 8.004542203047201  13.407410712973498  21.601364870955813
S 	 8.173136951935190  19.875923230498756  10.771069952216926
S 	 8.677929980270736  15.325074302356709  10.197212672131016
Au 	 8.508418797504785  17.586442212199135  10.679712148704729
S 	 10.704068373239769  17.598665602627971  7.904544457306044
S 	 15.031147611069173  17.527291297465847  6.314697350553317
Au 	 12.902318140140411  17.517468077559712  7.201874906310686
S 	 24.371541870587958  17.659427074348695  7.896932573959331
S 	 20.062175426496761  17.654865550005951  6.260893608971149
Au 	 22.179660922253543  17.600128285242612  7.187300475012584
S 	 19.982768781550082  21.207492712302123  6.559252645460943
S 	 23.798161043150564  22.104339291285310  8.995503848319553
Au 	 21.801691779714741  21.661695332338304  7.918280998578174
S 	 19.848667917290353  13.869646753691590  6.548552192919005
S 	 23.741631744642195  13.412869444051207  8.979316500325542
Au 	 21.700594875406928  13.619301736984930  7.923886923440839
S 	 15.273758163240027  21.451279006347129  6.567209773391770
S 	 11.331940257327975  21.923088977683399  8.926093857032200
Au 	 13.394286762985086  21.660657278861727  7.919133665920985
S 	 15.207626647441703  13.849226651996673  6.596230739091734
S 	 11.394828564002466  12.858606099426940  9.002881781456233
Au 	 13.403920557294615  13.408437786193399  7.993476493829041
S 	 19.906177160434300  10.429005205723856  8.485794658930283
S 	 15.314791615699479  10.387714662688763  8.583335930987232
Au 	 17.606885282073051  10.698279337666497  8.516442253117619
S 	 17.335377750049712  8.036955413825444  10.698619748012486
S 	 17.797856993196788  6.499396841446692  15.018285931924410
Au 	 17.494133504934350  7.386383155531361  12.907327345335277
S 	 17.557225718197508  8.049989472881721  24.279938967814775
S 	 17.511879569079397  6.457102884168321  19.959539196795923
Au 	 17.476870569253588  7.384998435666593  22.072974499558295
S 	 21.413909465316141  6.774343622798922  15.311500089433689
S 	 22.087652243464493  9.056557808013434  11.354978462280084
Au 	 21.686656424806266  8.084682989608451  13.411724192753548
S 	 13.652082031750020  6.773451268676290  15.064425220688342
S 	 12.897325635369979  9.166588253161281  11.222132977613471
Au 	 13.490766804950210  8.113140028955465  13.189583112424469
S 	 21.163878737559795  6.694501319253870  19.871187107479077
S 	 21.739270521485288  9.137424587475387  23.738924209985402
Au 	 21.403788282235965  8.075223890742164  21.717961348436440
S 	 13.745099204198418  6.701721972814778  19.802304117740281
S 	 12.784853172207358  9.177605390844359  23.575885222295838
Au 	 13.318213760898834  8.108419376502225  21.598266461299300
H 	 24.487376938348959  18.951425526977001  27.148266214719328
H 	 19.870164305666385  18.925348658255523  28.852841577792812
H 	 10.420419499593223  16.371329617006651  27.097754090470932
H 	 15.142773437842687  16.281344876255105  28.861221574968148
H 	 15.750313396485542  22.404038731576911  28.386292663529662
H 	 10.727824551731588  20.917172380442722  26.135570072721642
H 	 15.761488159905305  12.656202971313634  28.250824977638235
H 	 10.663089926635461  14.108724024470156  26.029324406023161
H 	 7.470907549198341  20.379622076486889  23.867737248105914
H 	 7.501649256487531  14.940262615355234  24.052478604266060
H 	 19.171242746234928  22.546516342730904  28.195540442988033
H 	 23.568593787543691  23.547743553636263  25.817241787535696
H 	 19.543377438265541  12.754124771321191  28.439414555637359
H 	 23.552601605324131  11.827359883661826  26.061890966717161
H 	 26.140926837976870  20.102534796653007  25.530560391303901
H 	 27.579119481611492  14.916886226368371  23.988499998267269
H 	 20.241978321627951  24.160780636220757  27.448048798588339
H 	 14.867028595813020  23.930373051913634  27.554101243006244
H 	 20.068318508621054  9.540088771017869  26.327289128522732
H 	 14.775158412123298  10.894452389250803  27.457724958478966
H 	 16.322717946769259  27.273761395903442  10.257471636743503
H 	 18.787850104994799  29.082070752431811  15.018785991092892
H 	 18.717882454660508  27.327758739432614  24.654711313087276
H 	 16.443995261555806  29.131072803349745  19.836548034798806
H 	 12.664197808002072  28.363053684267488  15.672525464814608
H 	 14.037876581731812  26.212040152660332  10.544275719466263
H 	 22.585853636228766  28.301813227542116  15.747839290949067
H 	 20.489115460245770  26.133652724687430  10.874485272359797
H 	 19.953127784471487  25.688723280735772  8.647859399201705
H 	 14.715935335971524  24.338692527654676  7.463607797810089
H 	 14.628813385812455  29.255631610659460  20.104390716468735
H 	 14.539175740557337  26.140172407446990  24.196779421705198
H 	 22.483379859475640  28.477109703692410  19.439278035773011
H 	 23.521212887461100  25.961467162308963  23.343252248340519
H 	 11.213367561197687  27.766891531824854  19.932364357249444
H 	 10.916964072798846  27.645239898649628  14.691703040153495
H 	 25.656210721152519  26.151685141529242  19.939958054292337
H 	 24.261013773922134  27.580427868651412  14.691968868429459
H 	 27.141213822247657  24.655420878463769  16.100239124302309
H 	 29.023970919996188  19.966377251267225  16.169285849952264
H 	 27.196084619283493  10.469941259339253  16.209172961733277
H 	 28.959871376454831  15.240022570216002  18.699378432393313
H 	 28.280048349948906  16.096897863018491  22.368537003510458
H 	 26.199703461382398  11.043117845093795  20.648354870403686
H 	 28.471764868106746  15.561442743033249  12.556055485799209
H 	 25.937519138612263  11.665474340152803  11.460922371395343
H 	 28.376293981612051  19.484720250696558  22.363380490084840
H 	 26.020631497218588  23.696284436037931  23.255738676224137
H 	 28.455423932397743  19.550291153044586  12.522279169445513
H 	 26.078350706851904  24.568974931535791  13.883102253395746
H 	 25.930641605765764  20.136941754342484  9.287906506862772
H 	 26.262910196936389  15.141656069250807  9.346875455114182
H 	 25.655441532530521  8.745223898165207  19.889696249804615
H 	 24.247593608300640  7.649205137781896  14.647042076121210
H 	 7.883440605703767  24.640323498197215  16.184063750814531
H 	 6.053671885424211  19.948697109946522  16.288150611004934
H 	 7.751289177947062  10.666830433368498  16.085687060566858
H 	 6.093204949215913  15.339200207371636  16.132328231523982
H 	 10.877130518788947  7.640797341036105  20.200916697193623
H 	 9.399692150635582  8.890301291379371  14.962966581927828
H 	 6.651689289671215  19.362643922054158  22.359544439902777
H 	 8.893847983815833  24.361650459561666  20.730752030337914
H 	 6.450878384628262  19.696661879447152  12.703297553189074
H 	 9.000701808105921  24.624232743525958  13.883092616946923
H 	 6.928526128297345  16.066625691053961  12.410572448504404
H 	 8.876147024811690  10.998655026969592  14.294483938779194
H 	 6.707028530106628  15.841175125814010  22.340053434958016
H 	 9.216253208018143  11.791355496614326  23.543876596885791
H 	 8.518170504731554  20.129536082641529  9.475175728414849
H 	 7.540501364314709  14.827868188659732  10.766609998662744
H 	 10.380897936174746  16.274665857611215  7.839485600202306
H 	 15.089914059605890  18.866009727071447  6.042328212846499
H 	 24.652876412252230  16.336570694534192  7.715515081368743
H 	 19.957757500962991  16.320179033070065  5.977870471280361
H 	 19.480793920341043  22.480000396757767  6.538949377146919
H 	 23.691521106971873  23.460858448955946  9.038162075830996
H 	 19.236209291132081  12.654199137509504  6.674028403266825
H 	 24.028654004107295  14.750024670598904  9.056757760373308
H 	 15.893850723091720  22.651410130478364  6.800529099645686
H 	 10.947626161408408  20.613058059182617  8.877156313570209
H 	 15.867147819770365  12.657329782530800  6.730252496473911
H 	 11.641024955909996  11.522695870018369  9.108280261428497
H 	 20.272052838042448  11.151105457545613  7.385231827669640
H 	 14.843460429772589  11.015017944472589  7.466365128810079
H 	 15.973442382948194  8.020500746953314  10.603353513834518
H 	 16.526961113599896  6.043613938235171  15.222628806094649
H 	 16.222108153494052  8.021249678018297  24.560333982582222
H 	 16.170214670009116  6.193778428125541  19.863237635442491
H 	 22.594902266015517  7.082220148566840  15.940004138243811
H 	 23.444129337706833  9.102415172231177  11.477822334174572
H 	 14.783308513708382  6.105493898545899  14.695945442931347
H 	 14.068690756347792  9.134569712545458  10.518212958873100
H 	 22.468142694254087  6.750870665562953  19.463248318860707
H 	 20.425792276569535  9.197245421334415  24.114187747643324
H 	 12.554294355508535  6.799282372207457  19.133625345381123
H 	 11.455396751142038  9.313721778546148  23.306540293544916
