136 

Au              0.110625306        0.321067852      -0.118062062 
Au            -0.220633077        0.850889097        3.003958632 
Au            -2.520141771        0.114771898        1.262592139 
Au            -1.276637712        2.694738690        1.003458304 
Au              1.641074920        2.417458556        1.340650171 
Au              2.215372133      -0.400318069        1.877112205 
Au            -0.371335371      -1.836332573        1.914909416 
Au              0.380100245      -0.163502636      -3.271325241 
Au            -2.223699914      -0.352437201      -1.885076567 
Au            -0.930653463        2.251608978      -2.149908621 
Au              1.963585014        1.848031318      -1.813674109 
Au              2.501816069      -0.921569226      -1.295626525 
Au            -0.100341009      -2.371040118      -1.452853690 
Au            -2.369845692      -0.848981215        3.904026357 
Au            -2.743529697        2.172591447        3.387475808 
Au              0.114143473        3.729411510        3.342311743 
Au              2.432222998        1.451313483        3.992345733 
Au              0.975537970      -1.401260729        4.342193433 
Au            -2.378580168      -3.603055491        2.691873278 
Au            -4.567409995      -1.694587924        1.892032574 
Au            -5.022090472        1.338344836        1.492493123 
Au            -3.742437048        4.028468098        1.077611764 
Au            -1.104311729        5.459496956        1.081587999 
Au              1.930979815        5.254871553        1.438995249 
Au              4.188666443        3.190316762        2.020652969 
Au              4.908785226        0.301140305        2.594628464 
Au              3.624960365      -2.524110692        2.873370558 
Au              1.117066337      -4.095204967        2.966927132 
Au            -2.637701277      -2.425663530        0.065721308 
Au            -3.417957557        1.968304297      -0.731437540 
Au              0.597543552        4.108249506      -0.668606430 
Au              3.916615256        1.115565781        0.151623904 
Au              2.024998315      -2.961899338        0.584992292 
Au            -2.071396086        0.840931039      -4.436742252 
Au              0.771451884        2.512049017      -4.386487080 
Au              3.142546260        0.334114571      -3.905049465 
Au              2.007696875      -2.529018768      -3.559033039 
Au            -1.453181138      -2.314976821      -3.912864227 
Au            -4.175437464      -2.239445520      -2.297965623 
Au            -4.673193082        0.787453207      -2.872261903 
Au            -3.220407663        3.463113912      -3.088761752 
Au            -0.504681859        4.930921969      -3.049074889 
Au              2.475068498        4.425461798      -2.709405754 
Au              4.680456131        2.450677093      -2.142016192 
Au              5.213011115      -0.473745945      -1.791036077 
Au              4.002232889      -3.278299061      -1.322781329 
Au              1.390569383      -4.728880376      -1.609871752 
Au            -2.168743366      -4.388502457      -1.837051550 
Au            -0.530782083      -4.473922846        0.579236663 
S                4.537778968      -0.596327648      -5.696290903 
S                5.774782773      -4.124601713      -2.758232346 
S                2.037595234        3.014494849      -6.436493530 
S                5.969402350        3.613242811      -3.862648133 
Au              3.952283902        3.364248914      -5.092318599 
Au              5.090455948      -2.368217332      -4.213255780 
S                1.775762548      -4.000573161      -5.511233283 
S              -1.767208776      -6.275165944      -3.373822986 
S              -2.468817354      -2.832934528      -6.079823054 
S              -6.043185857      -0.076192482      -4.722076099 
S              -2.324894082        1.756685014      -6.694536591 
S              -1.347382489        6.087558806      -5.029989228 
Au              0.032884205      -5.096720023      -4.345912572 
Au            -4.244412167      -1.475349055      -5.310003813 
Au            -1.771970393        3.886463918      -5.823016158 
S              -4.293948759        2.154847279        5.307331673 
S              -6.457310129      -1.638258698        3.424256875 
S              -2.511922335      -1.690348621        6.218330889 
S                0.312128621      -5.269815876        4.998423743 
S                1.857939724      -1.425082870        6.633461818 
S                6.027499469      -0.368584901        4.692944630 
S                3.095942494        2.887218578        5.866968790 
S                3.044990790        6.699565796        3.058876692 
S              -0.831696432        5.249793261        5.035697395 
S              -4.673505583        5.906188722        2.329578808 
Au            -2.728063806        5.533834093        3.645063709 
Au              3.007288587        4.757284049        4.425734028 
Au              3.915099539      -0.930885569        5.577412177 
Au            -1.117298275      -3.464117051        5.508484488 
Au            -5.299158258        0.224454548        4.352516997 
S              -4.014284027      -5.169598403        3.689243927 
S              -6.105758444      -3.750796468      -2.380911387 
S                5.015347586      -4.364866432        3.690675839 
S                2.605464447      -6.815067188      -2.184582790 
S                6.364714245        4.118872781        2.559147657 
S                7.555599780      -0.247961652      -2.470409312 
S              -0.789346262        7.760487706        0.320448527 
S                2.831131495        6.848094182      -2.605164047 
S              -7.247971458        2.247276863        1.995270268 
S              -5.100288344        4.782672050      -3.890889886 
Au            -3.903208179      -6.309371541        1.649568634 
Au            -4.932610909      -5.541997149      -1.410507160 
Au              3.462581965      -6.000219990        3.015645890 
Au              2.320194948      -7.293918176        0.084973682 
Au              7.480251768        2.070149398        2.292746793 
Au              8.207216646      -0.026644226      -0.242229691 
Au              0.991303103        7.128503128      -1.122780863 
Au            -7.821151128        1.968984857      -0.250013726 
Au            -6.662066523        3.190161388      -3.151957581 
S              -8.400525791        1.720922481      -2.506895095 
S              -3.908974170      -7.430034173      -0.412015136 
S                2.090169613      -7.811327680        2.358380552 
S                8.912254316        0.216854642        1.978170744 
H              -5.502395983        5.150386146        3.093445153 
H              -1.386629423        4.278783221        5.801381250 
H                1.916456194        7.243723166        3.578970169 
H                1.849532034        3.034126460        6.377575564 
H              -3.466117658        1.476583641        6.139971084 
H              -5.988915857      -2.588462159        4.271316013 
H              -7.820194049        1.112016653        2.466398090 
H              -9.411015837        2.627829947      -2.523113292 
H              -5.153896199        5.565177925      -2.784706217 
H              -6.730626992      -0.999020300      -4.005414728 
H              -3.017577668      -4.019308994      -5.722264446 
H              -6.620249631      -3.280384547      -1.217682945 
H              -5.039867625      -8.151992237      -0.201644196 
H              -3.162902808      -5.943702122        4.405492545 
H              -3.693202168      -2.341396024        6.092586850 
H              -0.611731583      -6.028638490        4.360646764 
H                2.038924176      -2.764470232        6.735040482 
H                6.355574578      -1.630158308        4.314754318 
H                4.633998870      -4.301854578        4.989992904 
H                0.897894894      -7.180180239        2.512799322 
H                1.571628242      -7.545785680      -2.667630143 
H                2.756196970      -4.873592440      -5.175930715 
H              -1.056091782      -6.998295467      -2.475138610 
H                6.243799870        4.071244408        3.909075304 
H                8.093826105      -0.737137638        2.487512398 
H                7.848988900      -1.566576684      -2.589659621 
H                5.053610233      -5.125235204      -3.322497604 
H                5.645258315        0.145283767      -5.445169661 
H                5.723784423        4.872039182      -3.422989613 
H                1.678299356        4.314614190      -6.564889443 
H                2.157666373        7.182576151      -3.732254421 
H                0.006902791        8.184695090        1.331374047 
H              -0.147316053        6.253420250      -5.638911330 
H              -1.066713978        1.435201525      -7.085588343 

